Test document

Edit me. Do it 2.

#From @moaa.

FIRST!

#From @ACDawg

Ok, I just did.

New line.
